Circuit: *** SPICE deck for cell 8_bit_NAND{sch} from library Project-1

Direct Newton iteration for .op point succeeded.

Date: Sun Jul 02 11:48:33 2023
Total elapsed time: 0.224 seconds.

tnom = 27
temp = 27
method = modified trap
totiter = 2350
traniter = 2335
tranpoints = 1088
accept = 1079
rejected = 9
matrix size = 90
fillins = 2
solver = Normal
Matrix Compiler1: 9.92 KB object code size  3.2/1.4/[0.9]
Matrix Compiler2: 10.93 KB object code size  1.3/1.6/[0.9]

