Circuit: *** SPICE deck for cell OneBitCam{sch} from library Project-1

Vin_rl: Removing PWL point (1e-008,0)
WARNING: Node RD is floating.

WARNING: Less than two connections to node RD.  This node is used by M:SRAM@1:NMOS@4.
WARNING: Less than two connections to node RL.  This node is used by VIN_RL.
Direct Newton iteration for .op point succeeded.

Date: Sun Jul 02 10:49:50 2023
Total elapsed time: 0.354 seconds.

tnom = 27
temp = 27
method = modified trap
totiter = 2191
traniter = 2171
tranpoints = 1051
accept = 1051
rejected = 0
matrix size = 87
fillins = 4
solver = Normal
Matrix Compiler1: 12.20 KB object code size  3.2/1.5/[1.0]
Matrix Compiler2: 10.45 KB object code size  1.2/1.4/[0.8]

