Circuit: *** SPICE deck for cell OneRowCAM{sch} from library Project-1-1

